Version 4
SHEET 1 1144 680
WIRE 16 48 -352 48
WIRE 16 112 -192 112
WIRE -352 208 -352 48
WIRE -192 288 -192 192
FLAG -192 288 0
FLAG -352 288 0
SYMBOL CD4046 160 160 R0
SYMATTR InstName U1
SYMBOL voltage -192 96 R0
SYMATTR InstName V1
SYMATTR Value PULSE(0 1 {delay} 0.001p 0.001p {T/2} {T})
SYMBOL voltage -352 192 R0
WINDOW 123 0 0 Left 2
WINDOW 39 0 0 Left 2
SYMATTR InstName V2
SYMATTR Value PULSE(0 1 0 0.001p 0.001p {T/2} {T})
TEXT -352 -208 Left 2 !.param f = 10k
TEXT -352 -184 Left 2 !.param T={1/f}
TEXT -352 -160 Left 2 !.param desfasaje = 90
TEXT -352 -136 Left 2 !.param delay = {T*desfasaje/360}
TEXT -752 370 Left 2 !.tran {5*T}
